AMOSTRA/ABA/GD.dss
! GERACAO DISTRIBUIDA — gerada de UGBT_tab e UGMT_tab
! Unidades com potencia nula sao omitidas (gerariam NaN).
! 939 unidades descartadas por potencia nula.
! 1838 unidades de BT realocadas para o secundario do transformador (rede secundaria nao modelada).
! 0 unidades descartadas por ponto de conexao ausente da rede.
! irradiance=1 — ver o docstring: 1,0 e meio-dia de ceu claro, nao a ponta de carga.
! 4 barras tiveram a GD limitada a capacidade do transformador (63 kW cortados).
! inversores em pf=1 — ver o docstring de _pv: 0,92 e capacidade exigida pelo PRODIST, nao despacho.
! 0 unidades de MT ligadas pelo PAC da carga (casadas por CEG_GD): o PAC da UGMT nao existe na SSDMT.
New PVSystem.GD_9d8d3f803cfe3f1c7387cf6a35c482a8ec90d4687ad85e1b82d482a641ebd00a phases=3 bus1=15662-11674158.1.2.3 conn=wye kv=13.8000 pf=1 pmpp=70.05 kva=70.05 irradiance=1 temperature=25 %cutin=20 %cutout=20 effcurve=MyEff P-TCurve=MyPvsT Daily=IRRAD_DIA TDaily=TEMP_DIA
New PVSystem.GD_828369d5a606a525da6d9f116297823191e757bcf8a1e7a862052dbe58d741ef phases=3 bus1=15842-12183472.1.2.3 conn=wye kv=13.8000 pf=1 pmpp=3.92 kva=3.92 irradiance=1 temperature=25 %cutin=20 %cutout=20 effcurve=MyEff P-TCurve=MyPvsT Daily=IRRAD_DIA TDaily=TEMP_DIA
New PVSystem.GD_ec13d173821da686b312c63cbebf885b98ab7227de5de73687f6c7fe8178176c phases=3 bus1=16107-12569526.1.2.3 conn=wye kv=13.8000 pf=1 pmpp=0.68 kva=0.68 irradiance=1 temperature=25 %cutin=20 %cutout=20 effcurve=MyEff P-TCurve=MyPvsT Daily=IRRAD_DIA TDaily=TEMP_DIA
New PVSystem.GD_3c0dd9c31b9c72ddd46155bf8cc433d57b19057ab10ee8436d7e24f230403391 phases=3 bus1=26283-11446313.1.2.3 conn=wye kv=13.8000 pf=1 pmpp=5.86 kva=5.86 irradiance=1 temperature=25 %cutin=20 %cutout=20 effcurve=MyEff P-TCurve=MyPvsT Daily=IRRAD_DIA TDaily=TEMP_DIA
New PVSystem.GD_3365bed22f41e36b4aa12460698b2fbc6d941a78c62afa0dcea4304ca55fdeed phases=3 bus1=26283-10868889.1.2.3 conn=wye kv=13.8000 pf=1 pmpp=10.56 kva=10.56 irradiance=1 temperature=25 %cutin=20 %cutout=20 effcurve=MyEff P-TCurve=MyPvsT Daily=IRRAD_DIA TDaily=TEMP_DIA
New PVSystem.GD_678bcffbcd3efcd9a92c39c44935201a2750f3dce3c454451fa37ddb8f27e2a8 phases=3 bus1=21642-12338645.1.2.3 conn=wye kv=13.8000 pf=1 pmpp=100.94 kva=100.94 irradiance=1 temperature=25 %cutin=20 %cutout=20 effcurve=MyEff P-TCurve=MyPvsT Daily=IRRAD_DIA TDaily=TEMP_DIA
New PVSystem.GD_a6e2c3514950fc3b48aec24f23f8c9aacfee3e0dd5702ff0c5ad561e58fff6b2 phases=3 bus1=16107-12397976.1.2.3 conn=wye kv=13.8000 pf=1 pmpp=6.16 kva=6.16 irradiance=1 temperature=25 %cutin=20 %cutout=20 effcurve=MyEff P-TCurve=MyPvsT Daily=IRRAD_DIA TDaily=TEMP_DIA
New PVSystem.GD_f09804c6a2df136a8c8f7afb7a7a55c51c3a6154fde3b763f3cc1c8c76abd25b phases=3 bus1=16102-12590702.1.2.3 conn=wye kv=13.8000 pf=1 pmpp=456.94 kva=456.94 irradiance=1 temperature=25 %cutin=20 %cutout=20 effcurve=MyEff P-TCurve=MyPvsT Daily=IRRAD_DIA TDaily=TEMP_DIA
New PVSystem.GD_4ff767e2fa99cc328e0acda1200fe997ec84940ce7004fc7c4f2505407c8c9ab phases=3 bus1=16102-12336447.1.2.3 conn=wye kv=13.8000 pf=1 pmpp=3.80 kva=3.80 irradiance=1 temperature=25 %cutin=20 %cutout=20 effcurve=MyEff P-TCurve=MyPvsT Daily=IRRAD_DIA TDaily=TEMP_DIA
New PVSystem.GD_7dcac7f8f02e41ff8ddae123f7306e2ef576ec282d81b05aef5cc18f0a0083ad phases=3 bus1=16107-11817725.1.2.3 conn=wye kv=13.8000 pf=1 pmpp=27.58 kva=27.58 irradiance=1 temperature=25 %cutin=20 %cutout=20 effcurve=MyEff P-TCurve=MyPvsT Daily=IRRAD_DIA TDaily=TEMP_DIA
New PVSystem.GD_61d476be816633c58efdcd940486593ddaa1ed11f15c90e6ad928b74beac9a7a phases=3 bus1=16112-12564805.1.2.3 conn=wye kv=13.8000 pf=1 pmpp=1.31 kva=1.31 irradiance=1 temperature=25 %cutin=20 %cutout=20 effcurve=MyEff P-TCurve=MyPvsT Daily=IRRAD_DIA TDaily=TEMP_DIA
New PVSystem.GD_336e532d94feffb6a27705ee0608b174546d2e1113e4b324cdc7ab82c37c3a82 phases=3 bus1=25323-11273219.1.2.3 conn=wye kv=13.8000 pf=1 pmpp=8.27 kva=8.27 irradiance=1 temperature=25 %cutin=20 %cutout=20 effcurve=MyEff P-TCurve=MyPvsT Daily=IRRAD_DIA TDaily=TEMP_DIA
New PVSystem.GD_3cff314dfe2f0f29f12737195f7da8403e5cd117ec001ce5f8b1ae286aed8ede phases=3 bus1=16112-12510818.1.2.3 conn=wye kv=13.8000 pf=1 pmpp=36.39 kva=36.39 irradiance=1 temperature=25 %cutin=20 %cutout=20 effcurve=MyEff P-TCurve=MyPvsT Daily=IRRAD_DIA TDaily=TEMP_DIA
New PVSystem.GD_3cdc7d2ab03006600325d6e1924a95f8659162ee0eb3aae9ea3f82228a9e5c21 phases=3 bus1=26282-12135128.1.2.3 conn=wye kv=13.8000 pf=1 pmpp=11.64 kva=11.64 irradiance=1 temperature=25 %cutin=20 %cutout=20 effcurve=MyEff P-TCurve=MyPvsT Daily=IRRAD_DIA TDaily=TEMP_DIA
New PVSystem.GD_b8737032ca7b3eae18afbdff896cce4140300f577fee2d694ca1e7fc6ef9d8dd phases=3 bus1=26282-12135128.1.2.3 conn=wye kv=13.8000 pf=1 pmpp=161.98 kva=161.98 irradiance=1 temperature=25 %cutin=20 %cutout=20 effcurve=MyEff P-TCurve=MyPvsT Daily=IRRAD_DIA TDaily=TEMP_DIA
New PVSystem.GD_fbf55ffaab6ed93fe5c86323337d2de64f14c1f13efbebfb560960adbc1ba023 phases=3 bus1=16107-10888745.1.2.3 conn=wye kv=13.8000 pf=1 pmpp=5.91 kva=5.91 irradiance=1 temperature=25 %cutin=20 %cutout=20 effcurve=MyEff P-TCurve=MyPvsT Daily=IRRAD_DIA TDaily=TEMP_DIA
New PVSystem.GD_d8a11187f64e17fdbc251a77b3843765c69db512d9a0a5a30215ec418a05b012 phases=3 bus1=21642-12520757.1.2.3 conn=wye kv=13.8000 pf=1 pmpp=51.70 kva=51.70 irradiance=1 temperature=25 %cutin=20 %cutout=20 effcurve=MyEff P-TCurve=MyPvsT Daily=IRRAD_DIA TDaily=TEMP_DIA
New PVSystem.GD_76b0d606afcff117d4b3f8d367cfb7e0cbc17a34bc18582303bff8e17bd4c18c phases=3 bus1=16107-10870719.1.2.3 conn=wye kv=13.8000 pf=1 pmpp=6.41 kva=6.41 irradiance=1 temperature=25 %cutin=20 %cutout=20 effcurve=MyEff P-TCurve=MyPvsT Daily=IRRAD_DIA TDaily=TEMP_DIA
New PVSystem.GD_84af757dbb67207ad858de48d7beedbc03f0f33f7776ec01c05bda4f5ab84825 phases=3 bus1=26282-10922681.1.2.3 conn=wye kv=13.8000 pf=1 pmpp=7.06 kva=7.06 irradiance=1 temperature=25 %cutin=20 %cutout=20 effcurve=MyEff P-TCurve=MyPvsT Daily=IRRAD_DIA TDaily=TEMP_DIA
New PVSystem.GD_a62d949ab6f248edbcb7eda1d7e39d43e15f9c053631e7c8d991245695e4fb3e_1 phases=1 bus1=3159154-12709570v.1.4 conn=wye kv=0.1270 pf=1 pmpp=1.53 kva=1.53 irradiance=1 temperature=25 %cutin=20 %cutout=20 effcurve=MyEff P-TCurve=MyPvsT Daily=IRRAD_DIA TDaily=TEMP_DIA
New PVSystem.GD_a62d949ab6f248edbcb7eda1d7e39d43e15f9c053631e7c8d991245695e4fb3e_2 phases=1 bus1=3159154-12709570v.2.4 conn=wye kv=0.1270 pf=1 pmpp=1.53 kva=1.53 irradiance=1 temperature=25 %cutin=20 %cutout=20 effcurve=MyEff P-TCurve=MyPvsT Daily=IRRAD_DIA TDaily=TEMP_DIA
New PVSystem.GD_a62d949ab6f248edbcb7eda1d7e39d43e15f9c053631e7c8d991245695e4fb3e_3 phases=1 bus1=3159154-12709570v.3.4 conn=wye kv=0.1270 pf=1 pmpp=1.53 kva=1.53 irradiance=1 temperature=25 %cutin=20 %cutout=20 effcurve=MyEff P-TCurve=MyPvsT Daily=IRRAD_DIA TDaily=TEMP_DIA
New PVSystem.GD_5ee1104a38956cd03e49186b62d73c15419bde494d829ba187fdb16497a69ec4_1 phases=1 bus1=3097256-12333883.1.4 conn=wye kv=0.1270 pf=1 pmpp=0.80 kva=0.80 irradiance=1 temperature=25 %cutin=20 %cutout=20 effcurve=MyEff P-TCurve=MyPvsT Daily=IRRAD_DIA TDaily=TEMP_DIA
New PVSystem.GD_5ee1104a38956cd03e49186b62d73c15419bde494d829ba187fdb16497a69ec4_2 phases=1 bus1=3097256-12333883.2.4 conn=wye kv=0.1270 pf=1 pmpp=0.80 kva=0.80 irradiance=1 temperature=25 %cutin=20 %cutout=20 effcurve=MyEff P-TCurve=MyPvsT Daily=IRRAD_DIA TDaily=TEMP_DIA
New PVSystem.GD_5ee1104a38956cd03e49186b62d73c15419bde494d829ba187fdb16497a69ec4_3 phases=1 bus1=3097256-12333883.3.4 conn=wye kv=0.1270 pf=1 pmpp=0.80 kva=0.80 irradiance=1 temperature=25 %cutin=20 %cutout=20 effcurve=MyEff P-TCurve=MyPvsT Daily=IRRAD_DIA TDaily=TEMP_DIA
New PVSystem.GD_7f38ae1b806bcf4a7ec665fb75c2e511ffab2ca9b34a54c394085cc765ee4a25_1 phases=1 bus1=3097256-12333883.1.4 conn=wye kv=0.1270 pf=1 pmpp=1.03 kva=1.03 irradiance=1 temperature=25 %cutin=20 %cutout=20 effcurve=MyEff P-TCurve=MyPvsT Daily=IRRAD_DIA TDaily=TEMP_DIA
New PVSystem.GD_7f38ae1b806bcf4a7ec665fb75c2e511ffab2ca9b34a54c394085cc765ee4a25_2 phases=1 bus1=3097256-12333883.2.4 conn=wye kv=0.1270 pf=1 pmpp=1.03 kva=1.03 irradiance=1 temperature=25 %cutin=20 %cutout=20 effcurve=MyEff P-TCurve=MyPvsT Daily=IRRAD_DIA TDaily=TEMP_DIA
New PVSystem.GD_7f38ae1b806bcf4a7ec665fb75c2e511ffab2ca9b34a54c394085cc765ee4a25_3 phases=1 bus1=3097256-12333883.3.4 conn=wye kv=0.1270 pf=1 pmpp=1.03 kva=1.03 irradiance=1 temperature=25 %cutin=20 %cutout=20 effcurve=MyEff P-TCurve=MyPvsT Daily=IRRAD_DIA TDaily=TEMP_DIA
New PVSystem.GD_da747fc528ae34ac59446883c6567c583741e3f7f1cd967ce1d8243264f07588_1 phases=1 bus1=2783368-12336548.1.4 conn=wye kv=0.1270 pf=1 pmpp=1.33 kva=1.33 irradiance=1 temperature=25 %cutin=20 %cutout=20 effcurve=MyEff P-TCurve=MyPvsT Daily=IRRAD_DIA TDaily=TEMP_DIA
New PVSystem.GD_da747fc528ae34ac59446883c6567c583741e3f7f1cd967ce1d8243264f07588_2 phases=1 bus1=2783368-12336548.2.4 conn=wye kv=0.1270 pf=1 pmpp=1.33 kva=1.33 irradiance=1 temperature=25 %cutin=20 %cutout=20 effcurve=MyEff P-TCurve=MyPvsT Daily=IRRAD_DIA TDaily=TEMP_DIA
New PVSystem.GD_da747fc528ae34ac59446883c6567c583741e3f7f1cd967ce1d8243264f07588_3 phases=1 bus1=2783368-12336548.3.4 conn=wye kv=0.1270 pf=1 pmpp=1.33 kva=1.33 irradiance=1 temperature=25 %cutin=20 %cutout=20 effcurve=MyEff P-TCurve=MyPvsT Daily=IRRAD_DIA TDaily=TEMP_DIA
New PVSystem.GD_13b825c3508c301d39c6e5f65ff67f822ff3811485130d37ba7ceb1cdc9c8289_1 phases=1 bus1=2783368-12336548.1.4 conn=wye kv=0.1270 pf=1 pmpp=1.49 kva=1.49 irradiance=1 temperature=25 %cutin=20 %cutout=20 effcurve=MyEff P-TCurve=MyPvsT Daily=IRRAD_DIA TDaily=TEMP_DIA
New PVSystem.GD_13b825c3508c301d39c6e5f65ff67f822ff3811485130d37ba7ceb1cdc9c8289_2 phases=1 bus1=2783368-12336548.2.4 conn=wye kv=0.1270 pf=1 pmpp=1.49 kva=1.49 irradiance=1 temperature=25 %cutin=20 %cutout=20 effcurve=MyEff P-TCurve=MyPvsT Daily=IRRAD_DIA TDaily=TEMP_DIA
New PVSystem.GD_13b825c3508c301d39c6e5f65ff67f822ff3811485130d37ba7ceb1cdc9c8289_3 phases=1 bus1=2783368-12336548.3.4 conn=wye kv=0.1270 pf=1 pmpp=1.49 kva=1.49 irradiance=1 temperature=25 %cutin=20 %cutout=20 effcurve=MyEff P-TCurve=MyPvsT Daily=IRRAD_DIA TDaily=TEMP_DIA
New PVSystem.GD_4c69153283810abbd0df72345378789ea6144e5684fbda9f2e01cb11a5b12c50_1 phases=1 bus1=2783368-12336548.1.4 conn=wye kv=0.1270 pf=1 pmpp=1.14 kva=1.14 irradiance=1 temperature=25 %cutin=20 %cutout=20 effcurve=MyEff P-TCurve=MyPvsT Daily=IRRAD_DIA TDaily=TEMP_DIA
New PVSystem.GD_4c69153283810abbd0df72345378789ea6144e5684fbda9f2e01cb11a5b12c50_2 phases=1 bus1=2783368-12336548.2.4 conn=wye kv=0.1270 pf=1 pmpp=1.14 kva=1.14 irradiance=1 temperature=25 %cutin=20 %cutout=20 effcurve=MyEff P-TCurve=MyPvsT Daily=IRRAD_DIA TDaily=TEMP_DIA
New PVSystem.GD_4c69153283810abbd0df72345378789ea6144e5684fbda9f2e01cb11a5b12c50_3 phases=1 bus1=2783368-12336548.3.4 conn=wye kv=0.1270 pf=1 pmpp=1.14 kva=1.14 irradiance=1 temperature=25 %cutin=20 %cutout=20 effcurve=MyEff P-TCurve=MyPvsT Daily=IRRAD_DIA TDaily=TEMP_DIA
New PVSystem.GD_a8d95c29f428530ac7a521aba6e6a9bf2994ad3797220468456a714fb1e282ec_1 phases=1 bus1=2783368-12336548.1.4 conn=wye kv=0.1270 pf=1 pmpp=0.45 kva=0.45 irradiance=1 temperature=25 %cutin=20 %cutout=20 effcurve=MyEff P-TCurve=MyPvsT Daily=IRRAD_DIA TDaily=TEMP_DIA
New PVSystem.GD_a8d95c29f428530ac7a521aba6e6a9bf2994ad3797220468456a714fb1e282ec_2 phases=1 bus1=2783368-12336548.2.4 conn=wye kv=0.1270 pf=1 pmpp=0.45 kva=0.45 irradiance=1 temperature=25 %cutin=20 %cutout=20 effcurve=MyEff P-TCurve=MyPvsT Daily=IRRAD_DIA TDaily=TEMP_DIA
New PVSystem.GD_a8d95c29f428530ac7a521aba6e6a9bf2994ad3797220468456a714fb1e282ec_3 phases=1 bus1=2783368-12336548.3.4 conn=wye kv=0.1270 pf=1 pmpp=0.45 kva=0.45 irradiance=1 temperature=25 %cutin=20 %cutout=20 effcurve=MyEff P-TCurve=MyPvsT Daily=IRRAD_DIA TDaily=TEMP_DIA
New PVSystem.GD_3eac68d02931b7cba81906903e55cc23f5c726dfdef7bae5b6bb1594b64da793_1 phases=1 bus1=2783368-12336548.1.4 conn=wye kv=0.1270 pf=1 pmpp=0.66 kva=0.66 irradiance=1 temperature=25 %cutin=20 %cutout=20 effcurve=MyEff P-TCurve=MyPvsT Daily=IRRAD_DIA TDaily=TEMP_DIA
New PVSystem.GD_3eac68d02931b7cba81906903e55cc23f5c726dfdef7bae5b6bb1594b64da793_2 phases=1 bus1=2783368-12336548.2.4 conn=wye kv=0.1270 pf=1 pmpp=0.66 kva=0.66 irradiance=1 temperature=25 %cutin=20 %cutout=20 effcurve=MyEff P-TCurve=MyPvsT Daily=IRRAD_DIA TDaily=TEMP_DIA
New PVSystem.GD_3eac68d02931b7cba81906903e55cc23f5c726dfdef7bae5b6bb1594b64da793_3 phases=1 bus1=2783368-12336548.3.4 conn=wye kv=0.1270 pf=1 pmpp=0.66 kva=0.66 irradiance=1 temperature=25 %cutin=20 %cutout=20 effcurve=MyEff P-TCurve=MyPvsT Daily=IRRAD_DIA TDaily=TEMP_DIA
New PVSystem.GD_26b3273da8ba0ce4b1e4f5d8bf71c5dee781956440c36c531bdcbe0f562e0a24_1 phases=1 bus1=2783368-12336548.1.4 conn=wye kv=0.1270 pf=1 pmpp=0.54 kva=0.54 irradiance=1 temperature=25 %cutin=20 %cutout=20 effcurve=MyEff P-TCurve=MyPvsT Daily=IRRAD_DIA TDaily=TEMP_DIA
New PVSystem.GD_26b3273da8ba0ce4b1e4f5d8bf71c5dee781956440c36c531bdcbe0f562e0a24_2 phases=1 bus1=2783368-12336548.2.4 conn=wye kv=0.1270 pf=1 pmpp=0.54 kva=0.54 irradiance=1 temperature=25 %cutin=20 %cutout=20 effcurve=MyEff P-TCurve=MyPvsT Daily=IRRAD_DIA TDaily=TEMP_DIA
New PVSystem.GD_26b3273da8ba0ce4b1e4f5d8bf71c5dee781956440c36c531bdcbe0f562e0a24_3 phases=1 bus1=2783368-12336548.3.4 conn=wye kv=0.1270 pf=1 pmpp=0.54 kva=0.54 irradiance=1 temperature=25 %cutin=20 %cutout=20 effcurve=MyEff P-TCurve=MyPvsT Daily=IRRAD_DIA TDaily=TEMP_DIA
New PVSystem.GD_6e05700d056c8b6f035238352d35e373ceb0b95219a08f5e23ade8710cf668af_1 phases=1 bus1=2783368-12336548.1.4 conn=wye kv=0.1270 pf=1 pmpp=0.72 kva=0.72 irradiance=1 temperature=25 %cutin=20 %cutout=20 effcurve=MyEff P-TCurve=MyPvsT Daily=IRRAD_DIA TDaily=TEMP_DIA
New PVSystem.GD_6e05700d056c8b6f035238352d35e373ceb0b95219a08f5e23ade8710cf668af_2 phases=1 bus1=2783368-12336548.2.4 conn=wye kv=0.1270 pf=1 pmpp=0.72 kva=0.72 irradiance=1 temperature=25 %cutin=20 %cutout=20 effcurve=MyEff P-TCurve=MyPvsT Daily=IRRAD_DIA TDaily=TEMP_DIA
New PVSystem.GD_6e05700d056c8b6f035238352d35e373ceb0b95219a08f5e23ade8710cf668af_3 phases=1 bus1=2783368-12336548.3.4 conn=wye kv=0.1270 pf=1 pmpp=0.72 kva=0.72 irradiance=1 temperature=25 %cutin=20 %cutout=20 effcurve=MyEff P-TCurve=MyPvsT Daily=IRRAD_DIA TDaily=TEMP_DIA
New PVSystem.GD_4c1469648d5ed5267d0c0efdebcec03a1d22c2aa512993e82b3604aa7a9774af_1 phases=1 bus1=2783368-12336548.1.4 conn=wye kv=0.1270 pf=1 pmpp=0.78 kva=0.78 irradiance=1 temperature=25 %cutin=20 %cutout=20 effcurve=MyEff P-TCurve=MyPvsT Daily=IRRAD_DIA TDaily=TEMP_DIA
New PVSystem.GD_4c1469648d5ed5267d0c0efdebcec03a1d22c2aa512993e82b3604aa7a9774af_2 phases=1 bus1=2783368-12336548.2.4 conn=wye kv=0.1270 pf=1 pmpp=0.78 kva=0.78 irradiance=1 temperature=25 %cutin=20 %cutout=20 effcurve=MyEff P-TCurve=MyPvsT Daily=IRRAD_DIA TDaily=TEMP_DIA
New PVSystem.GD_4c1469648d5ed5267d0c0efdebcec03a1d22c2aa512993e82b3604aa7a9774af_3 phases=1 bus1=2783368-12336548.3.4 conn=wye kv=0.1270 pf=1 pmpp=0.78 kva=0.78 irradiance=1 temperature=25 %cutin=20 %cutout=20 effcurve=MyEff P-TCurve=MyPvsT Daily=IRRAD_DIA TDaily=TEMP_DIA
New PVSystem.GD_fabee4c3e4316e258c6ed35d3ca696e185af18effffc2107ad33967d96cf434a_1 phases=1 bus1=2783368-12336548.1.4 conn=wye kv=0.1270 pf=1 pmpp=0.57 kva=0.57 irradiance=1 temperature=25 %cutin=20 %cutout=20 effcurve=MyEff P-TCurve=MyPvsT Daily=IRRAD_DIA TDaily=TEMP_DIA
New PVSystem.GD_fabee4c3e4316e258c6ed35d3ca696e185af18effffc2107ad33967d96cf434a_2 phases=1 bus1=2783368-12336548.2.4 conn=wye kv=0.1270 pf=1 pmpp=0.57 kva=0.57 irradiance=1 temperature=25 %cutin=20 %cutout=20 effcurve=MyEff P-TCurve=MyPvsT Daily=IRRAD_DIA TDaily=TEMP_DIA
New PVSystem.GD_fabee4c3e4316e258c6ed35d3ca696e185af18effffc2107ad33967d96cf434a_3 phases=1 bus1=2783368-12336548.3.4 conn=wye kv=0.1270 pf=1 pmpp=0.57 kva=0.57 irradiance=1 temperature=25 %cutin=20 %cutout=20 effcurve=MyEff P-TCurve=MyPvsT Daily=IRRAD_DIA TDaily=TEMP_DIA
New PVSystem.GD_5294b003d25f7e54e87c5417465b36d8d85a2df01519546f946f382191e8446b_1 phases=1 bus1=2785686-10889243.1.4 conn=wye kv=0.1270 pf=1 pmpp=2.09 kva=2.09 irradiance=1 temperature=25 %cutin=20 %cutout=20 effcurve=MyEff P-TCurve=MyPvsT Daily=IRRAD_DIA TDaily=TEMP_DIA
New PVSystem.GD_5294b003d25f7e54e87c5417465b36d8d85a2df01519546f946f382191e8446b_2 phases=1 bus1=2785686-10889243.2.4 conn=wye kv=0.1270 pf=1 pmpp=2.09 kva=2.09 irradiance=1 temperature=25 %cutin=20 %cutout=20 effcurve=MyEff P-TCurve=MyPvsT Daily=IRRAD_DIA TDaily=TEMP_DIA
New PVSystem.GD_5294b003d25f7e54e87c5417465b36d8d85a2df01519546f946f382191e8446b_3 phases=1 bus1=2785686-10889243.3.4 conn=wye kv=0.1270 pf=1 pmpp=2.09 kva=2.09 irradiance=1 temperature=25 %cutin=20 %cutout=20 effcurve=MyEff P-TCurve=MyPvsT Daily=IRRAD_DIA TDaily=TEMP_DIA
New PVSystem.GD_69f0703e19ee265ff4e69eab03d3ab31194e8e86b096a7acf01e7279b2c3e25a_1 phases=1 bus1=3097289-12334125.1.4 conn=wye kv=0.1270 pf=1 pmpp=0.53 kva=0.53 irradiance=1 temperature=25 %cutin=20 %cutout=20 effcurve=MyEff P-TCurve=MyPvsT Daily=IRRAD_DIA TDaily=TEMP_DIA
New PVSystem.GD_69f0703e19ee265ff4e69eab03d3ab31194e8e86b096a7acf01e7279b2c3e25a_2 phases=1 bus1=3097289-12334125.2.4 conn=wye kv=0.1270 pf=1 pmpp=0.53 kva=0.53 irradiance=1 temperature=25 %cutin=20 %cutout=20 effcurve=MyEff P-TCurve=MyPvsT Daily=IRRAD_DIA TDaily=TEMP_DIA
New PVSystem.GD_69f0703e19ee265ff4e69eab03d3ab31194e8e86b096a7acf01e7279b2c3e25a_3 phases=1 bus1=3097289-12334125.3.4 conn=wye kv=0.1270 pf=1 pmpp=0.53 kva=0.53 irradiance=1 temperature=25 %cutin=20 %cutout=20 effcurve=MyEff P-TCurve=MyPvsT Daily=IRRAD_DIA TDaily=TEMP_DIA
New PVSystem.GD_b24937b4aab57c5f1c7200433563d6604eca21ccf00ec80b5386fda3d4ed7c1d_1 phases=1 bus1=3097289-12334125.1.4 conn=wye kv=0.1270 pf=1 pmpp=0.92 kva=0.92 irradiance=1 temperature=25 %cutin=20 %cutout=20 effcurve=MyEff P-TCurve=MyPvsT Daily=IRRAD_DIA TDaily=TEMP_DIA
New PVSystem.GD_b24937b4aab57c5f1c7200433563d6604eca21ccf00ec80b5386fda3d4ed7c1d_2 phases=1 bus1=3097289-12334125.2.4 conn=wye kv=0.1270 pf=1 pmpp=0.92 kva=0.92 irradiance=1 temperature=25 %cutin=20 %cutout=20 effcurve=MyEff P-TCurve=MyPvsT Daily=IRRAD_DIA TDaily=TEMP_DIA
New PVSystem.GD_b24937b4aab57c5f1c7200433563d6604eca21ccf00ec80b5386fda3d4ed7c1d_3 phases=1 bus1=3097289-12334125.3.4 conn=wye kv=0.1270 pf=1 pmpp=0.92 kva=0.92 irradiance=1 temperature=25 %cutin=20 %cutout=20 effcurve=MyEff P-TCurve=MyPvsT Daily=IRRAD_DIA TDaily=TEMP_DIA
New PVSystem.GD_f7b6f29999d9e466d0f5cfc7d82e6b4423cf52db164da7d03b0a2e61078d384f_1 phases=1 bus1=3097289-12334125.1.4 conn=wye kv=0.1270 pf=1 pmpp=0.76 kva=0.76 irradiance=1 temperature=25 %cutin=20 %cutout=20 effcurve=MyEff P-TCurve=MyPvsT Daily=IRRAD_DIA TDaily=TEMP_DIA
New PVSystem.GD_f7b6f29999d9e466d0f5cfc7d82e6b4423cf52db164da7d03b0a2e61078d384f_2 phases=1 bus1=3097289-12334125.2.4 conn=wye kv=0.1270 pf=1 pmpp=0.76 kva=0.76 irradiance=1 temperature=25 %cutin=20 %cutout=20 effcurve=MyEff P-TCurve=MyPvsT Daily=IRRAD_DIA TDaily=TEMP_DIA
New PVSystem.GD_f7b6f29999d9e466d0f5cfc7d82e6b4423cf52db164da7d03b0a2e61078d384f_3 phases=1 bus1=3097289-12334125.3.4 conn=wye kv=0.1270 pf=1 pmpp=0.76 kva=0.76 irradiance=1 temperature=25 %cutin=20 %cutout=20 effcurve=MyEff P-TCurve=MyPvsT Daily=IRRAD_DIA TDaily=TEMP_DIA
New PVSystem.GD_70750e709d79b642a1ee2481e66b4bebebe54f5c85ce73eaa317a37e639f4ff7_1 phases=1 bus1=3097289-12334125.1.4 conn=wye kv=0.1270 pf=1 pmpp=1.47 kva=1.47 irradiance=1 temperature=25 %cutin=20 %cutout=20 effcurve=MyEff P-TCurve=MyPvsT Daily=IRRAD_DIA TDaily=TEMP_DIA
New PVSystem.GD_70750e709d79b642a1ee2481e66b4bebebe54f5c85ce73eaa317a37e639f4ff7_2 phases=1 bus1=3097289-12334125.2.4 conn=wye kv=0.1270 pf=1 pmpp=1.47 kva=1.47 irradiance=1 temperature=25 %cutin=20 %cutout=20 effcurve=MyEff P-TCurve=MyPvsT Daily=IRRAD_DIA TDaily=TEMP_DIA
New PVSystem.GD_70750e709d79b642a1ee2481e66b4bebebe54f5c85ce73eaa317a37e639f4ff7_3 phases=1 bus1=3097289-12334125.3.4 conn=wye kv=0.1270 pf=1 pmpp=1.47 kva=1.47 irradiance=1 temperature=25 %cutin=20 %cutout=20 effcurve=MyEff P-TCurve=MyPvsT Daily=IRRAD_DIA TDaily=TEMP_DIA
New PVSystem.GD_6ae5403dda00a9fa48899e54dc696f15743be48d813460f29f26f0b863d022e0_1 phases=1 bus1=3097289-12334125.1.4 conn=wye kv=0.1270 pf=1 pmpp=1.76 kva=1.76 irradiance=1 temperature=25 %cutin=20 %cutout=20 effcurve=MyEff P-TCurve=MyPvsT Daily=IRRAD_DIA TDaily=TEMP_DIA
New PVSystem.GD_6ae5403dda00a9fa48899e54dc696f15743be48d813460f29f26f0b863d022e0_2 phases=1 bus1=3097289-12334125.2.4 conn=wye kv=0.1270 pf=1 pmpp=1.76 kva=1.76 irradiance=1 temperature=25 %cutin=20 %cutout=20 effcurve=MyEff P-TCurve=MyPvsT Daily=IRRAD_DIA TDaily=TEMP_DIA
New PVSystem.GD_6ae5403dda00a9fa48899e54dc696f15743be48d813460f29f26f0b863d022e0_3 phases=1 bus1=3097289-12334125.3.4 conn=wye kv=0.1270 pf=1 pmpp=1.76 kva=1.76 irradiance=1 temperature=25 %cutin=20 %cutout=20 effcurve=MyEff P-TCurve=MyPvsT Daily=IRRAD_DIA TDaily=TEMP_DIA
New PVSystem.GD_9308e4bf2c5fda39ff7b4d90bb93911fc8b2a4687c64e9d139082018efa6a12e_1 phases=1 bus1=3097289-12334125.1.4 conn=wye kv=0.1270 pf=1 pmpp=0.39 kva=0.39 irradiance=1 temperature=25 %cutin=20 %cutout=20 effcurve=MyEff P-TCurve=MyPvsT Daily=IRRAD_DIA TDaily=TEMP_DIA
New PVSystem.GD_9308e4bf2c5fda39ff7b4d90bb93911fc8b2a4687c64e9d139082018efa6a12e_2 phases=1 bus1=3097289-12334125.2.4 conn=wye kv=0.1270 pf=1 pmpp=0.39 kva=0.39 irradiance=1 temperature=25 %cutin=20 %cutout=20 effcurve=MyEff P-TCurve=MyPvsT Daily=IRRAD_DIA TDaily=TEMP_DIA
New PVSystem.GD_9308e4bf2c5fda39ff7b4d90bb93911fc8b2a4687c64e9d139082018efa6a12e_3 phases=1 bus1=3097289-12334125.3.4 conn=wye kv=0.1270 pf=1 pmpp=0.39 kva=0.39 irradiance=1 temperature=25 %cutin=20 %cutout=20 effcurve=MyEff P-TCurve=MyPvsT Daily=IRRAD_DIA TDaily=TEMP_DIA
New PVSystem.GD_65dee5a5e7c146a8be9a5f1eaa61965147b5ca3b9dba2813b5fa17c4a26cbb20_1 phases=1 bus1=3097289-12334125.1.4 conn=wye kv=0.1270 pf=1 pmpp=0.88 kva=0.88 irradiance=1 temperature=25 %cutin=20 %cutout=20 effcurve=MyEff P-TCurve=MyPvsT Daily=IRRAD_DIA TDaily=TEMP_DIA
New PVSystem.GD_65dee5a5e7c146a8be9a5f1eaa61965147b5ca3b9dba2813b5fa17c4a26cbb20_2 phases=1 bus1=3097289-12334125.2.4 conn=wye kv=0.1270 pf=1 pmpp=0.88 kva=0.88 irradiance=1 temperature=25 %cutin=20 %cutout=20 effcurve=MyEff P-TCurve=MyPvsT Daily=IRRAD_DIA TDaily=TEMP_DIA
New PVSystem.GD_65dee5a5e7c146a8be9a5f1eaa61965147b5ca3b9dba2813b5fa17c4a26cbb20_3 phases=1 bus1=3097289-12334125.3.4 conn=wye kv=0.1270 pf=1 pmpp=0.88 kva=0.88 irradiance=1 temperature=25 %cutin=20 %cutout=20 effcurve=MyEff P-TCurve=MyPvsT Daily=IRRAD_DIA TDaily=TEMP_DIA
New PVSystem.GD_1d56c41938624025a5f6dde136f473f3eea5bd02fdc0dace9982b85f10d3c06d_1 phases=1 bus1=3097289-12334125.1.4 conn=wye kv=0.1270 pf=1 pmpp=0.92 kva=0.92 irradiance=1 temperature=25 %cutin=20 %cutout=20 effcurve=MyEff P-TCurve=MyPvsT Daily=IRRAD_DIA TDaily=TEMP_DIA
New PVSystem.GD_1d56c41938624025a5f6dde136f473f3eea5bd02fdc0dace9982b85f10d3c06d_2 phases=1 bus1=3097289-12334125.2.4 conn=wye kv=0.1270 pf=1 pmpp=0.92 kva=0.92 irradiance=1 temperature=25 %cutin=20 %cutout=20 effcurve=MyEff P-TCurve=MyPvsT Daily=IRRAD_DIA TDaily=TEMP_DIA
New PVSystem.GD_1d56c41938624025a5f6dde136f473f3eea5bd02fdc0dace9982b85f10d3c06d_3 phases=1 bus1=3097289-12334125.3.4 conn=wye kv=0.1270 pf=1 pmpp=0.92 kva=0.92 irradiance=1 temperature=25 %cutin=20 %cutout=20 effcurve=MyEff P-TCurve=MyPvsT Daily=IRRAD_DIA TDaily=TEMP_DIA
New PVSystem.GD_b6700b2f46cd71b0733207a7c1c3af92db5f12484e38acd7066093f63595a3f0_1 phases=1 bus1=3097289-12334125.1.4 conn=wye kv=0.1270 pf=1 pmpp=4.01 kva=4.01 irradiance=1 temperature=25 %cutin=20 %cutout=20 effcurve=MyEff P-TCurve=MyPvsT Daily=IRRAD_DIA TDaily=TEMP_DIA
New PVSystem.GD_b6700b2f46cd71b0733207a7c1c3af92db5f12484e38acd7066093f63595a3f0_2 phases=1 bus1=3097289-12334125.2.4 conn=wye kv=0.1270 pf=1 pmpp=4.01 kva=4.01 irradiance=1 temperature=25 %cutin=20 %cutout=20 effcurve=MyEff P-TCurve=MyPvsT Daily=IRRAD_DIA TDaily=TEMP_DIA
New PVSystem.GD_b6700b2f46cd71b0733207a7c1c3af92db5f12484e38acd7066093f63595a3f0_3 phases=1 bus1=3097289-12334125.3.4 conn=wye kv=0.1270 pf=1 pmpp=4.01 kva=4.01 irradiance=1 temperature=25 %cutin=20 %cutout=20 effcurve=MyEff P-TCurve=MyPvsT Daily=IRRAD_DIA TDaily=TEMP_DIA
New PVSystem.GD_ea5c8c459286b33cad0ae218237d965b5d0936c13a09db0cbbcfca019b99df6a_1 phases=1 bus1=3098887-10869389.1.4 conn=wye kv=0.1270 pf=1 pmpp=1.72 kva=1.72 irradiance=1 temperature=25 %cutin=20 %cutout=20 effcurve=MyEff P-TCurve=MyPvsT Daily=IRRAD_DIA TDaily=TEMP_DIA
New PVSystem.GD_ea5c8c459286b33cad0ae218237d965b5d0936c13a09db0cbbcfca019b99df6a_2 phases=1 bus1=3098887-10869389.2.4 conn=wye kv=0.1270 pf=1 pmpp=1.72 kva=1.72 irradiance=1 temperature=25 %cutin=20 %cutout=20 effcurve=MyEff P-TCurve=MyPvsT Daily=IRRAD_DIA TDaily=TEMP_DIA
New PVSystem.GD_ea5c8c459286b33cad0ae218237d965b5d0936c13a09db0cbbcfca019b99df6a_3 phases=1 bus1=3098887-10869389.3.4 conn=wye kv=0.1270 pf=1 pmpp=1.72 kva=1.72 irradiance=1 temperature=25 %cutin=20 %cutout=20 effcurve=MyEff P-TCurve=MyPvsT Daily=IRRAD_DIA TDaily=TEMP_DIA
New PVSystem.GD_c23b9597261a5c8bbeb69c1316b8c731e469e7e5b7cecb97031ec8f634ba6100_1 phases=1 bus1=3098887-10869389.1.4 conn=wye kv=0.1270 pf=1 pmpp=0.65 kva=0.65 irradiance=1 temperature=25 %cutin=20 %cutout=20 effcurve=MyEff P-TCurve=MyPvsT Daily=IRRAD_DIA TDaily=TEMP_DIA
New PVSystem.GD_c23b9597261a5c8bbeb69c1316b8c731e469e7e5b7cecb97031ec8f634ba6100_2 phases=1 bus1=3098887-10869389.2.4 conn=wye kv=0.1270 pf=1 pmpp=0.65 kva=0.65 irradiance=1 temperature=25 %cutin=20 %cutout=20 effcurve=MyEff P-TCurve=MyPvsT Daily=IRRAD_DIA TDaily=TEMP_DIA
New PVSystem.GD_c23b9597261a5c8bbeb69c1316b8c731e469e7e5b7cecb97031ec8f634ba6100_3 phases=1 bus1=3098887-10869389.3.4 conn=wye kv=0.1270 pf=1 pmpp=0.65 kva=0.65 irradiance=1 temperature=25 %cutin=20 %cutout=20 effcurve=MyEff P-TCurve=MyPvsT Daily=IRRAD_DIA TDaily=TEMP_DIA
New PVSystem.GD_04a812a46a69de909d12a63751c46d70a208cbec717f9077daea4796a5b5a284_1 phases=1 bus1=3098887-10869389.1.4 conn=wye kv=0.1270 pf=1 pmpp=0.69 kva=0.69 irradiance=1 temperature=25 %cutin=20 %cutout=20 effcurve=MyEff P-TCurve=MyPvsT Daily=IRRAD_DIA TDaily=TEMP_DIA
New PVSystem.GD_04a812a46a69de909d12a63751c46d70a208cbec717f9077daea4796a5b5a284_2 phases=1 bus1=3098887-10869389.2.4 conn=wye kv=0.1270 pf=1 pmpp=0.69 kva=0.69 irradiance=1 temperature=25 %cutin=20 %cutout=20 effcurve=MyEff P-TCurve=MyPvsT Daily=IRRAD_DIA TDaily=TEMP_DIA
New PVSystem.GD_04a812a46a69de909d12a63751c46d70a208cbec717f9077daea4796a5b5a284_3 phases=1 bus1=3098887-10869389.3.4 conn=wye kv=0.1270 pf=1 pmpp=0.69 kva=0.69 irradiance=1 temperature=25 %cutin=20 %cutout=20 effcurve=MyEff P-TCurve=MyPvsT Daily=IRRAD_DIA TDaily=TEMP_DIA
New PVSystem.GD_d314db56b402ad20b2eb3fde835671168e484551d227734dfc5abbfb11906e6e_1 phases=1 bus1=3098887-10869389.1.4 conn=wye kv=0.1270 pf=1 pmpp=0.75 kva=0.75 irradiance=1 temperature=25 %cutin=20 %cutout=20 effcurve=MyEff P-TCurve=MyPvsT Daily=IRRAD_DIA TDaily=TEMP_DIA
New PVSystem.GD_d314db56b402ad20b2eb3fde835671168e484551d227734dfc5abbfb11906e6e_2 phases=1 bus1=3098887-10869389.2.4 conn=wye kv=0.1270 pf=1 pmpp=0.75 kva=0.75 irradiance=1 temperature=25 %cutin=20 %cutout=20 effcurve=MyEff P-TCurve=MyPvsT Daily=IRRAD_DIA TDaily=TEMP_DIA
New PVSystem.GD_d314db56b402ad20b2eb3fde835671168e484551d227734dfc5abbfb11906e6e_3 phases=1 bus1=3098887-10869389.3.4 conn=wye kv=0.1270 pf=1 pmpp=0.75 kva=0.75 irradiance=1 temperature=25 %cutin=20 %cutout=20 effcurve=MyEff P-TCurve=MyPvsT Daily=IRRAD_DIA TDaily=TEMP_DIA
New PVSystem.GD_a12e54f9fa2e2c42c26bf7ed5f699bcbd7f4193c3f396399455eb7e323d2980f_1 phases=1 bus1=3098887-10869389.1.4 conn=wye kv=0.1270 pf=1 pmpp=0.52 kva=0.52 irradiance=1 temperature=25 %cutin=20 %cutout=20 effcurve=MyEff P-TCurve=MyPvsT Daily=IRRAD_DIA TDaily=TEMP_DIA
New PVSystem.GD_a12e54f9fa2e2c42c26bf7ed5f699bcbd7f4193c3f396399455eb7e323d2980f_2 phases=1 bus1=3098887-10869389.2.4 conn=wye kv=0.1270 pf=1 pmpp=0.52 kva=0.52 irradiance=1 temperature=25 %cutin=20 %cutout=20 effcurve=MyEff P-TCurve=MyPvsT Daily=IRRAD_DIA TDaily=TEMP_DIA
New PVSystem.GD_a12e54f9fa2e2c42c26bf7ed5f699bcbd7f4193c3f396399455eb7e323d2980f_3 phases=1 bus1=3098887-10869389.3.4 conn=wye kv=0.1270 pf=1 pmpp=0.52 kva=0.52 irradiance=1 temperature=25 %cutin=20 %cutout=20 effcurve=MyEff P-TCurve=MyPvsT Daily=IRRAD_DIA TDaily=TEMP_DIA
New PVSystem.GD_363b1e4952f097940a285b7181ed2fb2c74d417ed5a10a1da7edc42dd5d7381f_1 phases=1 bus1=3097954-10888773.1.4 conn=wye kv=0.1270 pf=1 pmpp=0.67 kva=0.67 irradiance=1 temperature=25 %cutin=20 %cutout=20 effcurve=MyEff P-TCurve=MyPvsT Daily=IRRAD_DIA TDaily=TEMP_DIA
New PVSystem.GD_363b1e4952f097940a285b7181ed2fb2c74d417ed5a10a1da7edc42dd5d7381f_2 phases=1 bus1=3097954-10888773.2.4 conn=wye kv=0.1270 pf=1 pmpp=0.67 kva=0.67 irradiance=1 temperature=25 %cutin=20 %cutout=20 effcurve=MyEff P-TCurve=MyPvsT Daily=IRRAD_DIA TDaily=TEMP_DIA
New PVSystem.GD_363b1e4952f097940a285b7181ed2fb2c74d417ed5a10a1da7edc42dd5d7381f_3 phases=1 bus1=3097954-10888773.3.4 conn=wye kv=0.1270 pf=1 pmpp=0.67 kva=0.67 irradiance=1 temperature=25 %cutin=20 %cutout=20 effcurve=MyEff P-TCurve=MyPvsT Daily=IRRAD_DIA TDaily=TEMP_DIA
New PVSystem.GD_3cd2917606de0c9ad3af735d7f6eac98f94c160a71e945e4b0ec921fad979ce5_1 phases=1 bus1=3097954-10888773.1.4 conn=wye kv=0.1270 pf=1 pmpp=0.90 kva=0.90 irradiance=1 temperature=25 %cutin=20 %cutout=20 effcurve=MyEff P-TCurve=MyPvsT Daily=IRRAD_DIA TDaily=TEMP_DIA
New PVSystem.GD_3cd2917606de0c9ad3af735d7f6eac98f94c160a71e945e4b0ec921fad979ce5_2 phases=1 bus1=3097954-10888773.2.4 conn=wye kv=0.1270 pf=1 pmpp=0.90 kva=0.90 irradiance=1 temperature=25 %cutin=20 %cutout=20 effcurve=MyEff P-TCurve=MyPvsT Daily=IRRAD_DIA TDaily=TEMP_DIA
New PVSystem.GD_3cd2917606de0c9ad3af735d7f6eac98f94c160a71e945e4b0ec921fad979ce5_3 phases=1 bus1=3097954-10888773.3.4 conn=wye kv=0.1270 pf=1 pmpp=0.90 kva=0.90 irradiance=1 temperature=25 %cutin=20 %cutout=20 effcurve=MyEff P-TCurve=MyPvsT Daily=IRRAD_DIA TDaily=TEMP_DIA
New PVSystem.GD_286aed7ef1935ecf15fbba2d476e0428716ab0d1e04870c7fe9ea98b18ba3819_1 phases=1 bus1=3097954-10888773.1.4 conn=wye kv=0.1270 pf=1 pmpp=0.59 kva=0.59 irradiance=1 temperature=25 %cutin=20 %cutout=20 effcurve=MyEff P-TCurve=MyPvsT Daily=IRRAD_DIA TDaily=TEMP_DIA
New PVSystem.GD_286aed7ef1935ecf15fbba2d476e0428716ab0d1e04870c7fe9ea98b18ba3819_2 phases=1 bus1=3097954-10888773.2.4 conn=wye kv=0.1270 pf=1 pmpp=0.59 kva=0.59 irradiance=1 temperature=25 %cutin=20 %cutout=20 effcurve=MyEff P-TCurve=MyPvsT Daily=IRRAD_DIA TDaily=TEMP_DIA
New PVSystem.GD_286aed7ef1935ecf15fbba2d476e0428716ab0d1e04870c7fe9ea98b18ba3819_3 phases=1 bus1=3097954-10888773.3.4 conn=wye kv=0.1270 pf=1 pmpp=0.59 kva=0.59 irradiance=1 temperature=25 %cutin=20 %cutout=20 effcurve=MyEff P-TCurve=MyPvsT Daily=IRRAD_DIA TDaily=TEMP_DIA
New PVSystem.GD_1f98bb7480ab303e1ba5b83c765d7dd250b93ea6fc0ee2c4636bf1be3bd3ae3d_1 phases=1 bus1=3097954-10888773.1.4 conn=wye kv=0.1270 pf=1 pmpp=0.50 kva=0.50 irradiance=1 temperature=25 %cutin=20 %cutout=20 effcurve=MyEff P-TCurve=MyPvsT Daily=IRRAD_DIA TDaily=TEMP_DIA
New PVSystem.GD_1f98bb7480ab303e1ba5b83c765d7dd250b93ea6fc0ee2c4636bf1be3bd3ae3d_2 phases=1 bus1=3097954-10888773.2.4 conn=wye kv=0.1270 pf=1 pmpp=0.50 kva=0.50 irradiance=1 temperature=25 %cutin=20 %cutout=20 effcurve=MyEff P-TCurve=MyPvsT Daily=IRRAD_DIA TDaily=TEMP_DIA
New PVSystem.GD_1f98bb7480ab303e1ba5b83c765d7dd250b93ea6fc0ee2c4636bf1be3bd3ae3d_3 phases=1 bus1=3097954-10888773.3.4 conn=wye kv=0.1270 pf=1 pmpp=0.50 kva=0.50 irradiance=1 temperature=25 %cutin=20 %cutout=20 effcurve=MyEff P-TCurve=MyPvsT Daily=IRRAD_DIA TDaily=TEMP_DIA
New PVSystem.GD_b3b0e8b5dfda23be6527f35634f96543f08705caee69e1e114f02db7c9bc963b_1 phases=1 bus1=3097954-10888773.1.4 conn=wye kv=0.1270 pf=1 pmpp=0.75 kva=0.75 irradiance=1 temperature=25 %cutin=20 %cutout=20 effcurve=MyEff P-TCurve=MyPvsT Daily=IRRAD_DIA TDaily=TEMP_DIA
New PVSystem.GD_b3b0e8b5dfda23be6527f35634f96543f08705caee69e1e114f02db7c9bc963b_2 phases=1 bus1=3097954-10888773.2.4 conn=wye kv=0.1270 pf=1 pmpp=0.75 kva=0.75 irradiance=1 temperature=25 %cutin=20 %cutout=20 effcurve=MyEff P-TCurve=MyPvsT Daily=IRRAD_DIA TDaily=TEMP_DIA
New PVSystem.GD_b3b0e8b5dfda23be6527f35634f96543f08705caee69e1e114f02db7c9bc963b_3 phases=1 bus1=3097954-10888773.3.4 conn=wye kv=0.1270 pf=1 pmpp=0.75 kva=0.75 irradiance=1 temperature=25 %cutin=20 %cutout=20 effcurve=MyEff P-TCurve=MyPvsT Daily=IRRAD_DIA TDaily=TEMP_DIA
New PVSystem.GD_75f133414f70696dbd6c5646304a6b610ed234a21b897ad788815c23e93be62c_1 phases=1 bus1=3097954-10888773.1.4 conn=wye kv=0.1270 pf=1 pmpp=0.51 kva=0.51 irradiance=1 temperature=25 %cutin=20 %cutout=20 effcurve=MyEff P-TCurve=MyPvsT Daily=IRRAD_DIA TDaily=TEMP_DIA
New PVSystem.GD_75f133414f70696dbd6c5646304a6b610ed234a21b897ad788815c23e93be62c_2 phases=1 bus1=3097954-10888773.2.4 conn=wye kv=0.1270 pf=1 pmpp=0.51 kva=0.51 irradiance=1 temperature=25 %cutin=20 %cutout=20 effcurve=MyEff P-TCurve=MyPvsT Daily=IRRAD_DIA TDaily=TEMP_DIA
New PVSystem.GD_75f133414f70696dbd6c5646304a6b610ed234a21b897ad788815c23e93be62c_3 phases=1 bus1=3097954-10888773.3.4 conn=wye kv=0.1270 pf=1 pmpp=0.51 kva=0.51 irradiance=1 temperature=25 %cutin=20 %cutout=20 effcurve=MyEff P-TCurve=MyPvsT Daily=IRRAD_DIA TDaily=TEMP_DIA
New PVSystem.GD_d992e2f044ed090697af4f680af795b41bd17581e24639dfb487c315efa80050_1 phases=1 bus1=3097954-10888773.1.4 conn=wye kv=0.1270 pf=1 pmpp=0.93 kva=0.93 irradiance=1 temperature=25 %cutin=20 %cutout=20 effcurve=MyEff P-TCurve=MyPvsT Daily=IRRAD_DIA TDaily=TEMP_DIA
New PVSystem.GD_d992e2f044ed090697af4f680af795b41bd17581e24639dfb487c315efa80050_2 phases=1 bus1=3097954-10888773.2.4 conn=wye kv=0.1270 pf=1 pmpp=0.93 kva=0.93 irradiance=1 temperature=25 %cutin=20 %cutout=20 effcurve=MyEff P-TCurve=MyPvsT Daily=IRRAD_DIA TDaily=TEMP_DIA
New PVSystem.GD_d992e2f044ed090697af4f680af795b41bd17581e24639dfb487c315efa80050_3 phases=1 bus1=3097954-10888773.3.4 conn=wye kv=0.1270 pf=1 pmpp=0.93 kva=0.93 irradiance=1 temperature=25 %cutin=20 %cutout=20 effcurve=MyEff P-TCurve=MyPvsT Daily=IRRAD_DIA TDaily=TEMP_DIA
New PVSystem.GD_d2d36750564d11df51f53ff2becdba3f371a15ee3e15c4ece922fad38fa1f089_1 phases=1 bus1=3097954-10888773.1.4 conn=wye kv=0.1270 pf=1 pmpp=0.87 kva=0.87 irradiance=1 temperature=25 %cutin=20 %cutout=20 effcurve=MyEff P-TCurve=MyPvsT Daily=IRRAD_DIA TDaily=TEMP_DIA
New PVSystem.GD_d2d36750564d11df51f53ff2becdba3f371a15ee3e15c4ece922fad38fa1f089_2 phases=1 bus1=3097954-10888773.2.4 conn=wye kv=0.1270 pf=1 pmpp=0.87 kva=0.87 irradiance=1 temperature=25 %cutin=20 %cutout=20 effcurve=MyEff P-TCurve=MyPvsT Daily=IRRAD_DIA TDaily=TEMP_DIA
New PVSystem.GD_d2d36750564d11df51f53ff2becdba3f371a15ee3e15c4ece922fad38fa1f089_3 phases=1 bus1=3097954-10888773.3.4 conn=wye kv=0.1270 pf=1 pmpp=0.87 kva=0.87 irradiance=1 temperature=25 %cutin=20 %cutout=20 effcurve=MyEff P-TCurve=MyPvsT Daily=IRRAD_DIA TDaily=TEMP_DIA
New PVSystem.GD_dfd86d7b83784b936c9cb9d9d68b5a483c7d9f95416970ac8518d414f994c95e_1 phases=1 bus1=3097954-10888773.1.4 conn=wye kv=0.1270 pf=1 pmpp=1.72 kva=1.72 irradiance=1 temperature=25 %cutin=20 %cutout=20 effcurve=MyEff P-TCurve=MyPvsT Daily=IRRAD_DIA TDaily=TEMP_DIA
New PVSystem.GD_dfd86d7b83784b936c9cb9d9d68b5a483c7d9f95416970ac8518d414f994c95e_2 phases=1 bus1=3097954-10888773.2.4 conn=wye kv=0.1270 pf=1 pmpp=1.72 kva=1.72 irradiance=1 temperature=25 %cutin=20 %cutout=20 effcurve=MyEff P-TCurve=MyPvsT Daily=IRRAD_DIA TDaily=TEMP_DIA
New PVSystem.GD_dfd86d7b83784b936c9cb9d9d68b5a483c7d9f95416970ac8518d414f994c95e_3 phases=1 bus1=3097954-10888773.3.4 conn=wye kv=0.1270 pf=1 pmpp=1.72 kva=1.72 irradiance=1 temperature=25 %cutin=20 %cutout=20 effcurve=MyEff P-TCurve=MyPvsT Daily=IRRAD_DIA TDaily=TEMP_DIA
New PVSystem.GD_ac21cbc595c85fe7a6891891bf5697b191e7340d8a96ef83289d839923058ca4_1 phases=1 bus1=3098115-10868771.1.4 conn=wye kv=0.1270 pf=1 pmpp=0.74 kva=0.74 irradiance=1 temperature=25 %cutin=20 %cutout=20 effcurve=MyEff P-TCurve=MyPvsT Daily=IRRAD_DIA TDaily=TEMP_DIA
New PVSystem.GD_ac21cbc595c85fe7a6891891bf5697b191e7340d8a96ef83289d839923058ca4_2 phases=1 bus1=3098115-10868771.2.4 conn=wye kv=0.1270 pf=1 pmpp=0.74 kva=0.74 irradiance=1 temperature=25 %cutin=20 %cutout=20 effcurve=MyEff P-TCurve=MyPvsT Daily=IRRAD_DIA TDaily=TEMP_DIA
New PVSystem.GD_ac21cbc595c85fe7a6891891bf5697b191e7340d8a96ef83289d839923058ca4_3 phases=1 bus1=3098115-10868771.3.4 conn=wye kv=0.1270 pf=1 pmpp=0.74 kva=0.74 irradiance=1 temperature=25 %cutin=20 %cutout=20 effcurve=MyEff P-TCurve=MyPvsT Daily=IRRAD_DIA TDaily=TEMP_DIA
New PVSystem.GD_4af8695aa7f82eaa4d34b05730ddcaa52cd34808c5af7d584a9756c22f584d02_1 phases=1 bus1=3098115-10868771.1.4 conn=wye kv=0.1270 pf=1 pmpp=0.34 kva=0.34 irradiance=1 temperature=25 %cutin=20 %cutout=20 effcurve=MyEff P-TCurve=MyPvsT Daily=IRRAD_DIA TDaily=TEMP_DIA
New PVSystem.GD_4af8695aa7f82eaa4d34b05730ddcaa52cd34808c5af7d584a9756c22f584d02_2 phases=1 bus1=3098115-10868771.2.4 conn=wye kv=0.1270 pf=1 pmpp=0.34 kva=0.34 irradiance=1 temperature=25 %cutin=20 %cutout=20 effcurve=MyEff P-TCurve=MyPvsT Daily=IRRAD_DIA TDaily=TEMP_DIA
New PVSystem.GD_4af8695aa7f82eaa4d34b05730ddcaa52cd34808c5af7d584a9756c22f584d02_3 phases=1 bus1=3098115-10868771.3.4 conn=wye kv=0.1270 pf=1 pmpp=0.34 kva=0.34 irradiance=1 temperature=25 %cutin=20 %cutout=20 effcurve=MyEff P-TCurve=MyPvsT Daily=IRRAD_DIA TDaily=TEMP_DIA
New PVSystem.GD_d556e58bbe7490b323a7d94b5a6c4f2803ed5ac5266c6aaf84bd80708294e73b_1 phases=1 bus1=3098115-10868771.1.4 conn=wye kv=0.1270 pf=1 pmpp=0.50 kva=0.50 irradiance=1 temperature=25 %cutin=20 %cutout=20 effcurve=MyEff P-TCurve=MyPvsT Daily=IRRAD_DIA TDaily=TEMP_DIA
New PVSystem.GD_d556e58bbe7490b323a7d94b5a6c4f2803ed5ac5266c6aaf84bd80708294e73b_2 phases=1 bus1=3098115-10868771.2.4 conn=wye kv=0.1270 pf=1 pmpp=0.50 kva=0.50 irradiance=1 temperature=25 %cutin=20 %cutout=20 effcurve=MyEff P-TCurve=MyPvsT Daily=IRRAD_DIA TDaily=TEMP_DIA
New PVSystem.GD_d556e58bbe7490b323a7d94b5a6c4f2803ed5ac5266c6aaf84bd80708294e73b_3 phases=1 bus1=3098115-10868771.3.4 conn=wye kv=0.1270 pf=1 pmpp=0.50 kva=0.50 irradiance=1 temperature=25 %cutin=20 %cutout=20 effcurve=MyEff P-TCurve=MyPvsT Daily=IRRAD_DIA TDaily=TEMP_DIA
New PVSystem.GD_9d20869d0542a763679768bc9a7f4ef08662427d374e1b3c8b6f3bc8628125c9_1 phases=1 bus1=3098115-10868771.1.4 conn=wye kv=0.1270 pf=1 pmpp=1.01 kva=1.01 irradiance=1 temperature=25 %cutin=20 %cutout=20 effcurve=MyEff P-TCurve=MyPvsT Daily=IRRAD_DIA TDaily=TEMP_DIA
New PVSystem.GD_9d20869d0542a763679768bc9a7f4ef08662427d374e1b3c8b6f3bc8628125c9_2 phases=1 bus1=3098115-10868771.2.4 conn=wye kv=0.1270 pf=1 pmpp=1.01 kva=1.01 irradiance=1 temperature=25 %cutin=20 %cutout=20 effcurve=MyEff P-TCurve=MyPvsT Daily=IRRAD_DIA TDaily=TEMP_DIA
New PVSystem.GD_9d20869d0542a763679768bc9a7f4ef08662427d374e1b3c8b6f3bc8628125c9_3 phases=1 bus1=3098115-10868771.3.4 conn=wye kv=0.1270 pf=1 pmpp=1.01 kva=1.01 irradiance=1 temperature=25 %cutin=20 %cutout=20 effcurve=MyEff P-TCurve=MyPvsT Daily=IRRAD_DIA TDaily=TEMP_DIA
New PVSystem.GD_d2ac9cebdc609ecfbabe99358c6e6fcd93fad584e4bda540b63af11d055b7005_1 phases=1 bus1=3098115-10868771.1.4 conn=wye kv=0.1270 pf=1 pmpp=2.34 kva=2.34 irradiance=1 temperature=25 %cutin=20 %cutout=20 effcurve=MyEff P-TCurve=MyPvsT Daily=IRRAD_DIA TDaily=TEMP_DIA
New PVSystem.GD_d2ac9cebdc609ecfbabe99358c6e6fcd93fad584e4bda540b63af11d055b7005_2 phases=1 bus1=3098115-10868771.2.4 conn=wye kv=0.1270 pf=1 pmpp=2.34 kva=2.34 irradiance=1 temperature=25 %cutin=20 %cutout=20 effcurve=MyEff P-TCurve=MyPvsT Daily=IRRAD_DIA TDaily=TEMP_DIA
New PVSystem.GD_d2ac9cebdc609ecfbabe99358c6e6fcd93fad584e4bda540b63af11d055b7005_3 phases=1 bus1=3098115-10868771.3.4 conn=wye kv=0.1270 pf=1 pmpp=2.34 kva=2.34 irradiance=1 temperature=25 %cutin=20 %cutout=20 effcurve=MyEff P-TCurve=MyPvsT Daily=IRRAD_DIA TDaily=TEMP_DIA
New PVSystem.GD_f8c730baccf668c0e08d01d2b227f5a0c4da32be57e4363791fcf6b0dcafc7a8_1 phases=1 bus1=3098115-10868771.1.4 conn=wye kv=0.1270 pf=1 pmpp=0.91 kva=0.91 irradiance=1 temperature=25 %cutin=20 %cutout=20 effcurve=MyEff P-TCurve=MyPvsT Daily=IRRAD_DIA TDaily=TEMP_DIA
New PVSystem.GD_f8c730baccf668c0e08d01d2b227f5a0c4da32be57e4363791fcf6b0dcafc7a8_2 phases=1 bus1=3098115-10868771.2.4 conn=wye kv=0.1270 pf=1 pmpp=0.91 kva=0.91 irradiance=1 temperature=25 %cutin=20 %cutout=20 effcurve=MyEff P-TCurve=MyPvsT Daily=IRRAD_DIA TDaily=TEMP_DIA
New PVSystem.GD_f8c730baccf668c0e08d01d2b227f5a0c4da32be57e4363791fcf6b0dcafc7a8_3 phases=1 bus1=3098115-10868771.3.4 conn=wye kv=0.1270 pf=1 pmpp=0.91 kva=0.91 irradiance=1 temperature=25 %cutin=20 %cutout=20 effcurve=MyEff P-TCurve=MyPvsT Daily=IRRAD_DIA TDaily=TEMP_DIA
New PVSystem.GD_f4a1a86574e7b1ebaaefc9006cbc0cb30cb030555225b1c6132f55b30c22553c_1 phases=1 bus1=3133901-12559854.1.4 conn=wye kv=0.1270 pf=1 pmpp=0.74 kva=0.74 irradiance=1 temperature=25 %cutin=20 %cutout=20 effcurve=MyEff P-TCurve=MyPvsT Daily=IRRAD_DIA TDaily=TEMP_DIA
New PVSystem.GD_f4a1a86574e7b1ebaaefc9006cbc0cb30cb030555225b1c6132f55b30c22553c_2 phases=1 bus1=3133901-12559854.2.4 conn=wye kv=0.1270 pf=1 pmpp=0.74 kva=0.74 irradiance=1 temperature=25 %cutin=20 %cutout=20 effcurve=MyEff P-TCurve=MyPvsT Daily=IRRAD_DIA TDaily=TEMP_DIA
New PVSystem.GD_f4a1a86574e7b1ebaaefc9006cbc0cb30cb030555225b1c6132f55b30c22553c_3 phases=1 bus1=3133901-12559854.3.4 conn=wye kv=0.1270 pf=1 pmpp=0.74 kva=0.74 irradiance=1 temperature=25 %cutin=20 %cutout=20 effcurve=MyEff P-TCurve=MyPvsT Daily=IRRAD_DIA TDaily=TEMP_DIA
New PVSystem.GD_317bb2cf2bd8c25b6b2068cf0d82ea5c9d0195ceb4a4aeb3043bb9b26dc3b5d9_1 phases=1 bus1=3133901-12559854.1.4 conn=wye kv=0.1270 pf=1 pmpp=0.76 kva=0.76 irradiance=1 temperature=25 %cutin=20 %cutout=20 effcurve=MyEff P-TCurve=MyPvsT Daily=IRRAD_DIA TDaily=TEMP_DIA
New PVSystem.GD_317bb2cf2bd8c25b6b2068cf0d82ea5c9d0195ceb4a4aeb3043bb9b26dc3b5d9_2 phases=1 bus1=3133901-12559854.2.4 conn=wye kv=0.1270 pf=1 pmpp=0.76 kva=0.76 irradiance=1 temperature=25 %cutin=20 %cutout=20 effcurve=MyEff P-TCurve=MyPvsT Daily=IRRAD_DIA TDaily=TEMP_DIA
New PVSystem.GD_317bb2cf2bd8c25b6b2068cf0d82ea5c9d0195ceb4a4aeb3043bb9b26dc3b5d9_3 phases=1 bus1=3133901-12559854.3.4 conn=wye kv=0.1270 pf=1 pmpp=0.76 kva=0.76 irradiance=1 temperature=25 %cutin=20 %cutout=20 effcurve=MyEff P-TCurve=MyPvsT Daily=IRRAD_DIA TDaily=TEMP_DIA
New PVSystem.GD_8cb2a1a405a149f3620c327e18cbb2e3edfe9721632a6ee29b8da5019086e980_1 phases=1 bus1=2783501-12335717.1.4 conn=wye kv=0.1270 pf=1 pmpp=0.28 kva=0.28 irradiance=1 temperature=25 %cutin=20 %cutout=20 effcurve=MyEff P-TCurve=MyPvsT Daily=IRRAD_DIA TDaily=TEMP_DIA
New PVSystem.GD_8cb2a1a405a149f3620c327e18cbb2e3edfe9721632a6ee29b8da5019086e980_2 phases=1 bus1=2783501-12335717.2.4 conn=wye kv=0.1270 pf=1 pmpp=0.28 kva=0.28 irradiance=1 temperature=25 %cutin=20 %cutout=20 effcurve=MyEff P-TCurve=MyPvsT Daily=IRRAD_DIA TDaily=TEMP_DIA
New PVSystem.GD_8cb2a1a405a149f3620c327e18cbb2e3edfe9721632a6ee29b8da5019086e980_3 phases=1 bus1=2783501-12335717.3.4 conn=wye kv=0.1270 pf=1 pmpp=0.28 kva=0.28 irradiance=1 temperature=25 %cutin=20 %cutout=20 effcurve=MyEff P-TCurve=MyPvsT Daily=IRRAD_DIA TDaily=TEMP_DIA
New PVSystem.GD_7c9579752f3bc14226a9d839e817f958d04407140c879bad458f387d87a138c8_1 phases=1 bus1=2783501-12335717.1.4 conn=wye kv=0.1270 pf=1 pmpp=0.91 kva=0.91 irradiance=1 temperature=25 %cutin=20 %cutout=20 effcurve=MyEff P-TCurve=MyPvsT Daily=IRRAD_DIA TDaily=TEMP_DIA
New PVSystem.GD_7c9579752f3bc14226a9d839e817f958d04407140c879bad458f387d87a138c8_2 phases=1 bus1=2783501-12335717.2.4 conn=wye kv=0.1270 pf=1 pmpp=0.91 kva=0.91 irradiance=1 temperature=25 %cutin=20 %cutout=20 effcurve=MyEff P-TCurve=MyPvsT Daily=IRRAD_DIA TDaily=TEMP_DIA
New PVSystem.GD_7c9579752f3bc14226a9d839e817f958d04407140c879bad458f387d87a138c8_3 phases=1 bus1=2783501-12335717.3.4 conn=wye kv=0.1270 pf=1 pmpp=0.91 kva=0.91 irradiance=1 temperature=25 %cutin=20 %cutout=20 effcurve=MyEff P-TCurve=MyPvsT Daily=IRRAD_DIA TDaily=TEMP_DIA
New PVSystem.GD_c16f3abcf62796ee5b8413dbe2c145363b8f3a3cbb177ec90247663c97f1ed70_1 phases=1 bus1=2783501-12335717.1.4 conn=wye kv=0.1270 pf=1 pmpp=0.52 kva=0.52 irradiance=1 temperature=25 %cutin=20 %cutout=20 effcurve=MyEff P-TCurve=MyPvsT Daily=IRRAD_DIA TDaily=TEMP_DIA
New PVSystem.GD_c16f3abcf62796ee5b8413dbe2c145363b8f3a3cbb177ec90247663c97f1ed70_2 phases=1 bus1=2783501-12335717.2.4 conn=wye kv=0.1270 pf=1 pmpp=0.52 kva=0.52 irradiance=1 temperature=25 %cutin=20 %cutout=20 effcurve=MyEff P-TCurve=MyPvsT Daily=IRRAD_DIA TDaily=TEMP_DIA
New PVSystem.GD_c16f3abcf62796ee5b8413dbe2c145363b8f3a3cbb177ec90247663c97f1ed70_3 phases=1 bus1=2783501-12335717.3.4 conn=wye kv=0.1270 pf=1 pmpp=0.52 kva=0.52 irradiance=1 temperature=25 %cutin=20 %cutout=20 effcurve=MyEff P-TCurve=MyPvsT Daily=IRRAD_DIA TDaily=TEMP_DIA
New PVSystem.GD_06fe77385c24236d23eaba3e6bccf17ab6d8d1d721b42ced431f3830258f6612_1 phases=1 bus1=2783501-12335717.1.4 conn=wye kv=0.1270 pf=1 pmpp=0.94 kva=0.94 irradiance=1 temperature=25 %cutin=20 %cutout=20 effcurve=MyEff P-TCurve=MyPvsT Daily=IRRAD_DIA TDaily=TEMP_DIA
New PVSystem.GD_06fe77385c24236d23eaba3e6bccf17ab6d8d1d721b42ced431f3830258f6612_2 phases=1 bus1=2783501-12335717.2.4 conn=wye kv=0.1270 pf=1 pmpp=0.94 kva=0.94 irradiance=1 temperature=25 %cutin=20 %cutout=20 effcurve=MyEff P-TCurve=MyPvsT Daily=IRRAD_DIA TDaily=TEMP_DIA
New PVSystem.GD_06fe77385c24236d23eaba3e6bccf17ab6d8d1d721b42ced431f3830258f6612_3 phases=1 bus1=2783501-12335717.3.4 conn=wye kv=0.1270 pf=1 pmpp=0.94 kva=0.94 irradiance=1 temperature=25 %cutin=20 %cutout=20 effcurve=MyEff P-TCurve=MyPvsT Daily=IRRAD_DIA TDaily=TEMP_DIA
New PVSystem.GD_5b155832f7f102b136664b043d8baab03cf5a22b4387b1f10b01712037dd3d01_1 phases=1 bus1=2783501-12335717.1.4 conn=wye kv=0.1270 pf=1 pmpp=1.17 kva=1.17 irradiance=1 temperature=25 %cutin=20 %cutout=20 effcurve=MyEff P-TCurve=MyPvsT Daily=IRRAD_DIA TDaily=TEMP_DIA
New PVSystem.GD_5b155832f7f102b136664b043d8baab03cf5a22b4387b1f10b01712037dd3d01_2 phases=1 bus1=2783501-12335717.2.4 conn=wye kv=0.1270 pf=1 pmpp=1.17 kva=1.17 irradiance=1 temperature=25 %cutin=20 %cutout=20 effcurve=MyEff P-TCurve=MyPvsT Daily=IRRAD_DIA TDaily=TEMP_DIA
New PVSystem.GD_5b155832f7f102b136664b043d8baab03cf5a22b4387b1f10b01712037dd3d01_3 phases=1 bus1=2783501-12335717.3.4 conn=wye kv=0.1270 pf=1 pmpp=1.17 kva=1.17 irradiance=1 temperature=25 %cutin=20 %cutout=20 effcurve=MyEff P-TCurve=MyPvsT Daily=IRRAD_DIA TDaily=TEMP_DIA
New PVSystem.GD_431d7b55d51154e24d20a2c025b76cbcc235bf2ce519b288b7496617b1b68f5b_1 phases=1 bus1=2783501-12335717.1.4 conn=wye kv=0.1270 pf=1 pmpp=1.00 kva=1.00 irradiance=1 temperature=25 %cutin=20 %cutout=20 effcurve=MyEff P-TCurve=MyPvsT Daily=IRRAD_DIA TDaily=TEMP_DIA
New PVSystem.GD_431d7b55d51154e24d20a2c025b76cbcc235bf2ce519b288b7496617b1b68f5b_2 phases=1 bus1=2783501-12335717.2.4 conn=wye kv=0.1270 pf=1 pmpp=1.00 kva=1.00 irradiance=1 temperature=25 %cutin=20 %cutout=20 effcurve=MyEff P-TCurve=MyPvsT Daily=IRRAD_DIA TDaily=TEMP_DIA
New PVSystem.GD_431d7b55d51154e24d20a2c025b76cbcc235bf2ce519b288b7496617b1b68f5b_3 phases=1 bus1=2783501-12335717.3.4 conn=wye kv=0.1270 pf=1 pmpp=1.00 kva=1.00 irradiance=1 temperature=25 %cutin=20 %cutout=20 effcurve=MyEff P-TCurve=MyPvsT Daily=IRRAD_DIA TDaily=TEMP_DIA
New PVSystem.GD_3b5f13452f04996adead955698fbfecd60accca739a93a854ccc8c2d361be447_1 phases=1 bus1=2783501-12335717.1.4 conn=wye kv=0.1270 pf=1 pmpp=0.26 kva=0.26 irradiance=1 temperature=25 %cutin=20 %cutout=20 effcurve=MyEff P-TCurve=MyPvsT Daily=IRRAD_DIA TDaily=TEMP_DIA
New PVSystem.GD_3b5f13452f04996adead955698fbfecd60accca739a93a854ccc8c2d361be447_2 phases=1 bus1=2783501-12335717.2.4 conn=wye kv=0.1270 pf=1 pmpp=0.26 kva=0.26 irradiance=1 temperature=25 %cutin=20 %cutout=20 effcurve=MyEff P-TCurve=MyPvsT Daily=IRRAD_DIA TDaily=TEMP_DIA
New PVSystem.GD_3b5f13452f04996adead955698fbfecd60accca739a93a854ccc8c2d361be447_3 phases=1 bus1=2783501-12335717.3.4 conn=wye kv=0.1270 pf=1 pmpp=0.26 kva=0.26 irradiance=1 temperature=25 %cutin=20 %cutout=20 effcurve=MyEff P-TCurve=MyPvsT Daily=IRRAD_DIA TDaily=TEMP_DIA
New PVSystem.GD_726e0da072588f5d2d728b8947ff27a85dcb7bf963e9b6daca2963455b3f2ebb_1 phases=1 bus1=2783501-12335717.1.4 conn=wye kv=0.1270 pf=1 pmpp=0.79 kva=0.79 irradiance=1 temperature=25 %cutin=20 %cutout=20 effcurve=MyEff P-TCurve=MyPvsT Daily=IRRAD_DIA TDaily=TEMP_DIA
New PVSystem.GD_726e0da072588f5d2d728b8947ff27a85dcb7bf963e9b6daca2963455b3f2ebb_2 phases=1 bus1=2783501-12335717.2.4 conn=wye kv=0.1270 pf=1 pmpp=0.79 kva=0.79 irradiance=1 temperature=25 %cutin=20 %cutout=20 effcurve=MyEff P-TCurve=MyPvsT Daily=IRRAD_DIA TDaily=TEMP_DIA
New PVSystem.GD_726e0da072588f5d2d728b8947ff27a85dcb7bf963e9b6daca2963455b3f2ebb_3 phases=1 bus1=2783501-12335717.3.4 conn=wye kv=0.1270 pf=1 pmpp=0.79 kva=0.79 irradiance=1 temperature=25 %cutin=20 %cutout=20 effcurve=MyEff P-TCurve=MyPvsT Daily=IRRAD_DIA TDaily=TEMP_DIA
New PVSystem.GD_a314c4cf9c432e6ab8cd8e29d8d2c50c8bc631054df0c937694578c6d1d16a31_1 phases=1 bus1=2783501-12335717.1.4 conn=wye kv=0.1270 pf=1 pmpp=0.71 kva=0.71 irradiance=1 temperature=25 %cutin=20 %cutout=20 effcurve=MyEff P-TCurve=MyPvsT Daily=IRRAD_DIA TDaily=TEMP_DIA
New PVSystem.GD_a314c4cf9c432e6ab8cd8e29d8d2c50c8bc631054df0c937694578c6d1d16a31_2 phases=1 bus1=2783501-12335717.2.4 conn=wye kv=0.1270 pf=1 pmpp=0.71 kva=0.71 irradiance=1 temperature=25 %cutin=20 %cutout=20 effcurve=MyEff P-TCurve=MyPvsT Daily=IRRAD_DIA TDaily=TEMP_DIA
New PVSystem.GD_a314c4cf9c432e6ab8cd8e29d8d2c50c8bc631054df0c937694578c6d1d16a31_3 phases=1 bus1=2783501-12335717.3.4 conn=wye kv=0.1270 pf=1 pmpp=0.71 kva=0.71 irradiance=1 temperature=25 %cutin=20 %cutout=20 effcurve=MyEff P-TCurve=MyPvsT Daily=IRRAD_DIA TDaily=TEMP_DIA
New PVSystem.GD_d83bce64e7873cacb467e005a313a26224b5bf668bc9630d6f4a195fb4113676_1 phases=1 bus1=3107335-10888444.1.4 conn=wye kv=0.1270 pf=1 pmpp=0.70 kva=0.70 irradiance=1 temperature=25 %cutin=20 %cutout=20 effcurve=MyEff P-TCurve=MyPvsT Daily=IRRAD_DIA TDaily=TEMP_DIA
New PVSystem.GD_d83bce64e7873cacb467e005a313a26224b5bf668bc9630d6f4a195fb4113676_2 phases=1 bus1=3107335-10888444.2.4 conn=wye kv=0.1270 pf=1 pmpp=0.70 kva=0.70 irradiance=1 temperature=25 %cutin=20 %cutout=20 effcurve=MyEff P-TCurve=MyPvsT Daily=IRRAD_DIA TDaily=TEMP_DIA
New PVSystem.GD_d83bce64e7873cacb467e005a313a26224b5bf668bc9630d6f4a195fb4113676_3 phases=1 bus1=3107335-10888444.3.4 conn=wye kv=0.1270 pf=1 pmpp=0.70 kva=0.70 irradiance=1 temperature=25 %cutin=20 %cutout=20 effcurve=MyEff P-TCurve=MyPvsT Daily=IRRAD_DIA TDaily=TEMP_DIA
New PVSystem.GD_ed5b714522b856dfb7e914122918c16d524618bef3fe85520575bc9a160bed77_1 phases=1 bus1=3107335-10888444.1.4 conn=wye kv=0.1270 pf=1 pmpp=0.38 kva=0.38 irradiance=1 temperature=25 %cutin=20 %cutout=20 effcurve=MyEff P-TCurve=MyPvsT Daily=IRRAD_DIA TDaily=TEMP_DIA
New PVSystem.GD_ed5b714522b856dfb7e914122918c16d524618bef3fe85520575bc9a160bed77_2 phases=1 bus1=3107335-10888444.2.4 conn=wye kv=0.1270 pf=1 pmpp=0.38 kva=0.38 irradiance=1 temperature=25 %cutin=20 %cutout=20 effcurve=MyEff P-TCurve=MyPvsT Daily=IRRAD_DIA TDaily=TEMP_DIA
New PVSystem.GD_ed5b714522b856dfb7e914122918c16d524618bef3fe85520575bc9a160bed77_3 phases=1 bus1=3107335-10888444.3.4 conn=wye kv=0.1270 pf=1 pmpp=0.38 kva=0.38 irradiance=1 temperature=25 %cutin=20 %cutout=20 effcurve=MyEff P-TCurve=MyPvsT Daily=IRRAD_DIA TDaily=TEMP_DIA
New PVSystem.GD_e0df893071e94cc57f82e7b8e77590ddb6f003a47176de0428f34c47112fc258_1 phases=1 bus1=3107335-10888444.1.4 conn=wye kv=0.1270 pf=1 pmpp=0.58 kva=0.58 irradiance=1 temperature=25 %cutin=20 %cutout=20 effcurve=MyEff P-TCurve=MyPvsT Daily=IRRAD_DIA TDaily=TEMP_DIA
New PVSystem.GD_e0df893071e94cc57f82e7b8e77590ddb6f003a47176de0428f34c47112fc258_2 phases=1 bus1=3107335-10888444.2.4 conn=wye kv=0.1270 pf=1 pmpp=0.58 kva=0.58 irradiance=1 temperature=25 %cutin=20 %cutout=20 effcurve=MyEff P-TCurve=MyPvsT Daily=IRRAD_DIA TDaily=TEMP_DIA
New PVSystem.GD_e0df893071e94cc57f82e7b8e77590ddb6f003a47176de0428f34c47112fc258_3 phases=1 bus1=3107335-10888444.3.4 conn=wye kv=0.1270 pf=1 pmpp=0.58 kva=0.58 irradiance=1 temperature=25 %cutin=20 %cutout=20 effcurve=MyEff P-TCurve=MyPvsT Daily=IRRAD_DIA TDaily=TEMP_DIA
New PVSystem.GD_e22eb0c3188fa5e2a953b4767b2f65670f910a161a18dfb7d5353b479be5274b_1 phases=1 bus1=3107335-10888444.1.4 conn=wye kv=0.1270 pf=1 pmpp=0.76 kva=0.76 irradiance=1 temperature=25 %cutin=20 %cutout=20 effcurve=MyEff P-TCurve=MyPvsT Daily=IRRAD_DIA TDaily=TEMP_DIA
New PVSystem.GD_e22eb0c3188fa5e2a953b4767b2f65670f910a161a18dfb7d5353b479be5274b_2 phases=1 bus1=3107335-10888444.2.4 conn=wye kv=0.1270 pf=1 pmpp=0.76 kva=0.76 irradiance=1 temperature=25 %cutin=20 %cutout=20 effcurve=MyEff P-TCurve=MyPvsT Daily=IRRAD_DIA TDaily=TEMP_DIA
New PVSystem.GD_e22eb0c3188fa5e2a953b4767b2f65670f910a161a18dfb7d5353b479be5274b_3 phases=1 bus1=3107335-10888444.3.4 conn=wye kv=0.1270 pf=1 pmpp=0.76 kva=0.76 irradiance=1 temperature=25 %cutin=20 %cutout=20 effcurve=MyEff P-TCurve=MyPvsT Daily=IRRAD_DIA TDaily=TEMP_DIA
New PVSystem.GD_c2a03545d592504e55258486fd725618749527d073cb401de6134640c184b777_1 phases=1 bus1=3137577-11272527.1.4 conn=wye kv=0.1270 pf=1 pmpp=1.09 kva=1.09 irradiance=1 temperature=25 %cutin=20 %cutout=20 effcurve=MyEff P-TCurve=MyPvsT Daily=IRRAD_DIA TDaily=TEMP_DIA
New PVSystem.GD_c2a03545d592504e55258486fd725618749527d073cb401de6134640c184b777_2 phases=1 bus1=3137577-11272527.2.4 conn=wye kv=0.1270 pf=1 pmpp=1.09 kva=1.09 irradiance=1 temperature=25 %cutin=20 %cutout=20 effcurve=MyEff P-TCurve=MyPvsT Daily=IRRAD_DIA TDaily=TEMP_DIA
New PVSystem.GD_c2a03545d592504e55258486fd725618749527d073cb401de6134640c184b777_3 phases=1 bus1=3137577-11272527.3.4 conn=wye kv=0.1270 pf=1 pmpp=1.09 kva=1.09 irradiance=1 temperature=25 %cutin=20 %cutout=20 effcurve=MyEff P-TCurve=MyPvsT Daily=IRRAD_DIA TDaily=TEMP_DIA
New PVSystem.GD_61e52539feb0cefcfdde0bd6e05f64612864470f2c9c07636e3c547758dac472_1 phases=1 bus1=3137577-11272527.1.4 conn=wye kv=0.1270 pf=1 pmpp=1.25 kva=1.25 irradiance=1 temperature=25 %cutin=20 %cutout=20 effcurve=MyEff P-TCurve=MyPvsT Daily=IRRAD_DIA TDaily=TEMP_DIA
New PVSystem.GD_61e52539feb0cefcfdde0bd6e05f64612864470f2c9c07636e3c547758dac472_2 phases=1 bus1=3137577-11272527.2.4 conn=wye kv=0.1270 pf=1 pmpp=1.25 kva=1.25 irradiance=1 temperature=25 %cutin=20 %cutout=20 effcurve=MyEff P-TCurve=MyPvsT Daily=IRRAD_DIA TDaily=TEMP_DIA
New PVSystem.GD_61e52539feb0cefcfdde0bd6e05f64612864470f2c9c07636e3c547758dac472_3 phases=1 bus1=3137577-11272527.3.4 conn=wye kv=0.1270 pf=1 pmpp=1.25 kva=1.25 irradiance=1 temperature=25 %cutin=20 %cutout=20 effcurve=MyEff P-TCurve=MyPvsT Daily=IRRAD_DIA TDaily=TEMP_DIA
New PVSystem.GD_688d479dc583379da5378eabf4c429789deae40f9437e5177aff2042ecbf8fff_1 phases=1 bus1=3137577-11272527.1.4 conn=wye kv=0.1270 pf=1 pmpp=0.61 kva=0.61 irradiance=1 temperature=25 %cutin=20 %cutout=20 effcurve=MyEff P-TCurve=MyPvsT Daily=IRRAD_DIA TDaily=TEMP_DIA
New PVSystem.GD_688d479dc583379da5378eabf4c429789deae40f9437e5177aff2042ecbf8fff_2 phases=1 bus1=3137577-11272527.2.4 conn=wye kv=0.1270 pf=1 pmpp=0.61 kva=0.61 irradiance=1 temperature=25 %cutin=20 %cutout=20 effcurve=MyEff P-TCurve=MyPvsT Daily=IRRAD_DIA TDaily=TEMP_DIA
New PVSystem.GD_688d479dc583379da5378eabf4c429789deae40f9437e5177aff2042ecbf8fff_3 phases=1 bus1=3137577-11272527.3.4 conn=wye kv=0.1270 pf=1 pmpp=0.61 kva=0.61 irradiance=1 temperature=25 %cutin=20 %cutout=20 effcurve=MyEff P-TCurve=MyPvsT Daily=IRRAD_DIA TDaily=TEMP_DIA
New PVSystem.GD_2358d1945eac1ae9b301927f7b96582a322119f7aa11edd1584ab3c7f1e01788_1 phases=1 bus1=3137577-11272527.1.4 conn=wye kv=0.1270 pf=1 pmpp=0.73 kva=0.73 irradiance=1 temperature=25 %cutin=20 %cutout=20 effcurve=MyEff P-TCurve=MyPvsT Daily=IRRAD_DIA TDaily=TEMP_DIA
...
